#======================================================================

# CRYSTAL DATA

#----------------------------------------------------------------------

data_VESTA_phase_1


_pd_phase_name                         'TiBPDC_Imma'
_cell_length_a                         23.49290
_cell_length_b                         6.34350
_cell_length_c                         19.63820
_cell_angle_alpha                      90
_cell_angle_beta                       90
_cell_angle_gamma                      90
_symmetry_space_group_name_H-M         'I m m a'
_symmetry_Int_Tables_number            74

loop_
_symmetry_equiv_pos_as_xyz
   'x, y, z'
   '-x, -y, -z'
   '-x, -y+1/2, z'
   'x, y+1/2, -z'
   '-x, y+1/2, -z'
   'x, -y+1/2, z'
   'x, -y, -z'
   '-x, y, z'
   'x+1/2, y+1/2, z+1/2'
   '-x+1/2, -y+1/2, -z+1/2'
   '-x+1/2, -y, z+1/2'
   'x+1/2, y, -z+1/2'
   '-x+1/2, y, -z+1/2'
   'x+1/2, -y, z+1/2'
   'x+1/2, -y+1/2, -z+1/2'
   '-x+1/2, y+1/2, z+1/2'

loop_
   _atom_site_label
   _atom_site_occupancy
   _atom_site_fract_x
   _atom_site_fract_y
   _atom_site_fract_z
   _atom_site_adp_type
   _atom_site_U_iso_or_equiv
   _atom_site_type_symbol
   O1         1.0     0.060850      0.575740      0.063880     Uiso  0.012670 O
